*SRC=SB190;DI_SB190;Diodes;Si;  90.0V  1.00A  5.00ns   Diodes Inc. Schottky 
.MODEL SB190 D  ( IS=6.63u RS=62.3m BV=90.0 IBV=500u 
+ CJO=199p  M=0.333 N=1.70 TT=7.20n )
